Version 4
SHEET 1 1048 680
WIRE -224 -32 -224 -48
WIRE 368 -32 368 -64
WIRE 448 -32 448 -80
WIRE 112 -16 112 -48
WIRE 112 -16 -48 -16
WIRE 272 -16 112 -16
WIRE 112 16 112 -16
WIRE -48 32 -48 -16
WIRE 272 32 272 -16
WIRE 80 48 48 48
WIRE 160 48 144 48
WIRE -224 64 -224 48
WIRE 368 64 368 48
WIRE 448 64 448 48
WIRE -160 160 -176 160
WIRE -48 160 -48 112
WIRE -48 160 -80 160
WIRE 96 160 96 80
WIRE 96 160 -48 160
WIRE 128 160 128 80
WIRE 272 160 272 112
WIRE 272 160 128 160
WIRE -48 192 -48 160
WIRE 272 192 272 160
WIRE -48 304 -48 272
WIRE 272 304 272 272
FLAG -224 64 0
FLAG 368 64 0
FLAG -176 160 Vin
IOPIN -176 160 In
FLAG -224 -48 Vin
FLAG 448 -80 0
FLAG 368 -64 Vcc
FLAG 160 48 Vcc
FLAG 448 64 Vss
FLAG 48 48 Vss
FLAG 112 -48 Vout
IOPIN 112 -48 Out
FLAG -48 304 0
FLAG 272 304 0
SYMBOL OpAmps\\UniversalOpAmp 112 48 M270
SYMATTR InstName U1
SYMBOL res -32 16 M0
SYMATTR InstName R1
SYMATTR Value 100
SYMBOL res 288 16 M0
SYMATTR InstName R2
SYMATTR Value 10k
SYMBOL res -64 176 M270
WINDOW 0 32 56 VTop 2
WINDOW 3 0 56 VBottom 2
SYMATTR InstName R3
SYMATTR Value 1k
SYMBOL res 288 176 M0
SYMATTR InstName R4
SYMATTR Value 100k
SYMBOL voltage -224 -48 R0
WINDOW 123 0 0 Left 0
WINDOW 39 0 0 Left 0
WINDOW 3 -50 -37 VRight 2
SYMATTR Value SINE(0 0.5 1k)
SYMATTR InstName V1
SYMBOL voltage 368 -48 R0
WINDOW 123 0 0 Left 0
WINDOW 39 0 0 Left 0
SYMATTR InstName V3
SYMATTR Value 10
SYMBOL voltage 448 -48 R0
WINDOW 123 0 0 Left 0
WINDOW 39 0 0 Left 0
SYMATTR InstName V4
SYMATTR Value 10
SYMBOL res -32 176 M0
SYMATTR InstName RL
SYMATTR Value {RL}
TEXT -296 304 Left 2 !.tran 0 1.5m 0 1m
TEXT -152 -144 Left 2 !.step param RL list 1k 2k 5k 10k
