Version 4
SHEET 1 880 680
WIRE 384 48 48 48
WIRE 384 96 384 48
WIRE 48 128 48 48
WIRE 48 224 48 208
WIRE 384 224 384 176
WIRE 384 224 48 224
WIRE 48 240 48 224
FLAG 48 240 0
SYMBOL voltage 48 112 R0
WINDOW 123 0 0 Left 0
WINDOW 39 0 0 Left 0
SYMATTR InstName V1
SYMATTR Value SINE(0 1 10)
SYMBOL res 368 80 R0
SYMATTR InstName R1
SYMATTR Value 10
TEXT 8 264 Left 2 !.tran 0 1 0 0.1
