Version 4
SHEET 1 936 680
WIRE -144 -80 -144 -96
WIRE -32 -80 -32 -96
WIRE 544 -80 544 -112
WIRE 624 -80 624 -128
WIRE 192 -16 64 -16
WIRE 400 -16 272 -16
WIRE -144 16 -144 0
WIRE -32 16 -32 0
WIRE 544 16 544 0
WIRE 624 16 624 0
WIRE 64 64 64 -16
WIRE 96 64 64 64
WIRE 224 64 176 64
WIRE 400 80 400 -16
WIRE 432 80 400 80
WIRE 544 80 512 80
WIRE 144 160 144 144
WIRE -64 176 -96 176
WIRE 64 176 64 64
WIRE 64 176 16 176
WIRE 112 176 64 176
WIRE 480 176 480 160
WIRE 224 192 224 64
WIRE 224 192 176 192
WIRE 272 192 224 192
WIRE 400 192 400 80
WIRE 400 192 352 192
WIRE 448 192 400 192
WIRE 112 208 64 208
WIRE 544 208 544 80
WIRE 544 208 512 208
WIRE 576 208 544 208
WIRE 448 224 400 224
WIRE -96 240 -96 176
WIRE 144 256 144 224
WIRE 480 272 480 240
FLAG -144 16 0
FLAG -32 16 0
FLAG -96 240 0
FLAG 544 16 0
FLAG 64 208 V1
FLAG 400 224 V2
FLAG -144 -96 V1
FLAG -32 -96 V2
FLAG 624 -128 0
FLAG 544 -112 Vcc
FLAG 144 144 Vcc
FLAG 480 160 Vcc
FLAG 624 16 Vss
FLAG 480 272 Vss
FLAG 144 256 Vss
FLAG 576 208 Vout
IOPIN 576 208 Out
SYMBOL OpAmps\\UniversalOpAmp 144 192 R0
SYMATTR InstName U1
SYMBOL OpAmps\\UniversalOpAmp 480 208 R0
SYMATTR InstName U2
SYMBOL res 288 -32 R90
WINDOW 0 0 56 VBottom 2
WINDOW 3 32 56 VTop 2
SYMATTR InstName R1
SYMATTR Value 1k
SYMBOL res 192 48 R90
WINDOW 0 0 56 VBottom 2
WINDOW 3 32 56 VTop 2
SYMATTR InstName R2
SYMATTR Value 1k
SYMBOL res 528 64 R90
WINDOW 0 0 56 VBottom 2
WINDOW 3 32 56 VTop 2
SYMATTR InstName R3
SYMATTR Value 1k
SYMBOL res 32 160 R90
WINDOW 0 0 56 VBottom 2
WINDOW 3 32 56 VTop 2
SYMATTR InstName R4
SYMATTR Value 1k
SYMBOL voltage -144 -96 R0
WINDOW 123 0 0 Left 0
WINDOW 39 0 0 Left 0
WINDOW 3 -50 -37 VRight 2
SYMATTR InstName V1
SYMATTR Value SINE(0 10m 1k)
SYMBOL voltage -32 -96 R0
WINDOW 123 0 0 Left 0
WINDOW 39 0 0 Left 0
WINDOW 3 -49 -44 VRight 2
SYMATTR InstName V2
SYMATTR Value SINE(0 -10m 1k)
SYMBOL voltage 544 -96 R0
WINDOW 123 0 0 Left 0
WINDOW 39 0 0 Left 0
SYMATTR InstName V3
SYMATTR Value 10
SYMBOL voltage 624 -96 R0
WINDOW 123 0 0 Left 0
WINDOW 39 0 0 Left 0
SYMATTR InstName V4
SYMATTR Value 10
SYMBOL res 368 176 R90
WINDOW 0 0 56 VBottom 2
WINDOW 3 32 56 VTop 2
SYMATTR InstName R5
SYMATTR Value 1k
TEXT -184 312 Left 2 !.tran 0 20m 0 2m
